<?xml version="1.0" encoding="ISO-8859-1"?>
<febio_spec version="2.5">
	<Module type="solid"/>
	<Material>
		<material id="1" name="Material 1" type="isotropic elastic">
			<E>2100000.0</E>
			<v>0.3</v>
		</material>
	</Material>
	<Geometry>
		<Nodes name="cube1">
			<node id="1">0.0, 1.0, 1.0</node>
			<node id="2">0.0, 1.0, 0.0</node>
			<node id="3">0.0, 0.0, 1.0</node>
			<node id="4">1.0, 1.0, 1.0</node>
			<node id="5">0.0, 0.0, 0.0</node>
			<node id="6">1.0, 1.0, 0.0</node>
			<node id="7">1.0, 0.0, 1.0</node>
			<node id="8">1.0, 0.0, 0.0</node>
		</Nodes>
		<Elements type="hex8" mat="1" name="Part1">
			<elem id="1">1, 3, 5, 2, 4, 7, 8, 6</elem>
		</Elements>
	</Geometry>
</febio_spec>
